
 OpenBabel05292410153D

257286  0  0  0  0  0  0  0  0999 V2000
   30.8648   19.8499  -21.4351 H   0  0  0  0  0  0  0  0  0  0  0  0
   31.0399   19.2054  -20.5777 C   0  0  0  0  0  0  0  0  0  0  0  0
   30.2461   19.3275  -19.4428 C   0  0  0  0  0  0  0  0  0  0  0  0
   30.4745   18.5016  -18.3391 C   0  0  0  0  0  0  0  0  0  0  0  0
   31.5060   17.5455  -18.3420 C   0  0  0  0  0  0  0  0  0  0  0  0
   31.7680   16.6902  -17.1672 C   0  0  0  0  0  0  0  0  0  0  0  0
   32.2720   15.4030  -17.1030 C   0  0  0  0  0  0  0  0  0  0  0  0
   32.3729   14.9119  -15.7623 C   0  0  0  0  0  0  0  0  0  0  0  0
   31.9484   15.8308  -14.8191 C   0  0  0  0  0  0  0  0  0  0  0  0
   31.4815   17.2908  -15.5865 S   0  0  0  0  0  0  0  0  0  0  0  0
   32.2889   17.4312  -19.5011 C   0  0  0  0  0  0  0  0  0  0  0  0
   32.0586   18.2559  -20.6091 C   0  0  0  0  0  0  0  0  0  0  0  0
   29.4486   20.0653  -19.4091 H   0  0  0  0  0  0  0  0  0  0  0  0
   29.8273   18.6193  -17.4731 H   0  0  0  0  0  0  0  0  0  0  0  0
   32.5444   14.8216  -17.9758 H   0  0  0  0  0  0  0  0  0  0  0  0
   32.7300   13.9193  -15.5140 H   0  0  0  0  0  0  0  0  0  0  0  0
   33.1021   16.7114  -19.5517 H   0  0  0  0  0  0  0  0  0  0  0  0
   32.6810   18.1612  -21.4953 H   0  0  0  0  0  0  0  0  0  0  0  0
   31.8962   15.7181  -13.3484 C   0  0  0  0  0  0  0  0  0  0  0  0
   32.8177   14.9185  -12.6636 C   0  0  0  0  0  0  0  0  0  0  0  0
   32.7878   14.8200  -11.2646 C   0  0  0  0  0  0  0  0  0  0  0  0
   31.8273   15.5035  -10.5015 C   0  0  0  0  0  0  0  0  0  0  0  0
   31.7764   15.3946   -9.0308 C   0  0  0  0  0  0  0  0  0  0  0  0
   31.3532   16.3163   -8.0899 C   0  0  0  0  0  0  0  0  0  0  0  0
   31.4736   15.8370   -6.7471 C   0  0  0  0  0  0  0  0  0  0  0  0
   31.9873   14.5551   -6.6800 C   0  0  0  0  0  0  0  0  0  0  0  0
   32.2416   13.9363   -8.2600 S   0  0  0  0  0  0  0  0  0  0  0  0
   30.9057   16.3026  -11.1862 C   0  0  0  0  0  0  0  0  0  0  0  0
   30.9371   16.4029  -12.5847 C   0  0  0  0  0  0  0  0  0  0  0  0
   33.5873   14.3705  -13.2022 H   0  0  0  0  0  0  0  0  0  0  0  0
   33.5419   14.2014  -10.7828 H   0  0  0  0  0  0  0  0  0  0  0  0
   30.9899   17.3059   -8.3408 H   0  0  0  0  0  0  0  0  0  0  0  0
   31.2130   16.4247   -5.8751 H   0  0  0  0  0  0  0  0  0  0  0  0
   30.1358   16.8499  -10.6475 H   0  0  0  0  0  0  0  0  0  0  0  0
   30.1858   17.0254  -13.0657 H   0  0  0  0  0  0  0  0  0  0  0  0
   32.2808   13.7154   -5.5036 C   0  0  0  0  0  0  0  0  0  0  0  0
   31.5237   13.8271   -4.3300 C   0  0  0  0  0  0  0  0  0  0  0  0
   31.7863   13.0102   -3.2169 C   0  0  0  0  0  0  0  0  0  0  0  0
   32.8164   12.0592   -3.2408 C   0  0  0  0  0  0  0  0  0  0  0  0
   33.0808   11.1994   -2.0706 C   0  0  0  0  0  0  0  0  0  0  0  0
   32.2102   10.7341   -1.1044 C   0  0  0  0  0  0  0  0  0  0  0  0
   32.8550    9.9197   -0.1198 C   0  0  0  0  0  0  0  0  0  0  0  0
   34.2155    9.7702   -0.3354 C   0  0  0  0  0  0  0  0  0  0  0  0
   34.6695   10.6545   -1.7387 S   0  0  0  0  0  0  0  0  0  0  0  0
   33.5762   11.9563   -4.4137 C   0  0  0  0  0  0  0  0  0  0  0  0
   33.3210   12.7761   -5.5185 C   0  0  0  0  0  0  0  0  0  0  0  0
   30.7063   14.5417   -4.2669 H   0  0  0  0  0  0  0  0  0  0  0  0
   31.1741   13.1372   -2.3270 H   0  0  0  0  0  0  0  0  0  0  0  0
   31.1490   10.9512   -1.1003 H   0  0  0  0  0  0  0  0  0  0  0  0
   32.3218    9.4673    0.7065 H   0  0  0  0  0  0  0  0  0  0  0  0
   34.3809   11.2296   -4.4994 H   0  0  0  0  0  0  0  0  0  0  0  0
   33.9580   12.6601   -6.3927 H   0  0  0  0  0  0  0  0  0  0  0  0
   35.2257    9.0093    0.4442 C   0  0  0  0  0  0  0  0  0  0  0  0
   34.8674    8.3031    1.6030 C   0  0  0  0  0  0  0  0  0  0  0  0
   35.8188    7.5849    2.3528 C   0  0  0  0  0  0  0  0  0  0  0  0
   37.1664    7.5460    1.9714 C   0  0  0  0  0  0  0  0  0  0  0  0
   38.1614    6.7870    2.7557 C   0  0  0  0  0  0  0  0  0  0  0  0
   37.9918    5.6480    3.5212 C   0  0  0  0  0  0  0  0  0  0  0  0
   39.2116    5.1827    4.1048 C   0  0  0  0  0  0  0  0  0  0  0  0
   40.3008    5.9737    3.7857 C   0  0  0  0  0  0  0  0  0  0  0  0
   39.7980    7.3054    2.8268 S   0  0  0  0  0  0  0  0  0  0  0  0
   37.5241    8.2385    0.8092 C   0  0  0  0  0  0  0  0  0  0  0  0
   36.5764    8.9560    0.0663 C   0  0  0  0  0  0  0  0  0  0  0  0
   33.8390    8.2969    1.9548 H   0  0  0  0  0  0  0  0  0  0  0  0
   35.4839    7.0668    3.2486 H   0  0  0  0  0  0  0  0  0  0  0  0
   37.0404    5.1443    3.6418 H   0  0  0  0  0  0  0  0  0  0  0  0
   39.2792    4.2901    4.7145 H   0  0  0  0  0  0  0  0  0  0  0  0
   38.5491    8.2319    0.4466 H   0  0  0  0  0  0  0  0  0  0  0  0
   36.9385    9.4709   -0.8201 H   0  0  0  0  0  0  0  0  0  0  0  0
   41.7170    5.8216    4.1797 C   0  0  0  0  0  0  0  0  0  0  0  0
   42.7676    6.2500    3.3562 C   0  0  0  0  0  0  0  0  0  0  0  0
   44.1081    6.1096    3.7484 C   0  0  0  0  0  0  0  0  0  0  0  0
   44.4534    5.5217    4.9726 C   0  0  0  0  0  0  0  0  0  0  0  0
   45.8603    5.3836    5.4085 C   0  0  0  0  0  0  0  0  0  0  0  0
   46.3798    5.3753    6.6914 C   0  0  0  0  0  0  0  0  0  0  0  0
   47.8015    5.2346    6.7163 C   0  0  0  0  0  0  0  0  0  0  0  0
   48.3607    5.1271    5.4544 C   0  0  0  0  0  0  0  0  0  0  0  0
   47.1251    5.1834    4.2607 S   0  0  0  0  0  0  0  0  0  0  0  0
   43.4029    5.0825    5.7929 C   0  0  0  0  0  0  0  0  0  0  0  0
   42.0585    5.2288    5.4029 C   0  0  0  0  0  0  0  0  0  0  0  0
   42.5682    6.7021    2.3869 H   0  0  0  0  0  0  0  0  0  0  0  0
   44.8749    6.4837    3.0741 H   0  0  0  0  0  0  0  0  0  0  0  0
   45.7731    5.4862    7.5813 H   0  0  0  0  0  0  0  0  0  0  0  0
   48.3806    5.2171    7.6317 H   0  0  0  0  0  0  0  0  0  0  0  0
   43.6088    4.6118    6.7516 H   0  0  0  0  0  0  0  0  0  0  0  0
   41.2825    4.8823    6.0819 H   0  0  0  0  0  0  0  0  0  0  0  0
   49.7863    5.0115    5.0701 C   0  0  0  0  0  0  0  0  0  0  0  0
   50.2016    4.3561    3.9010 C   0  0  0  0  0  0  0  0  0  0  0  0
   51.5612    4.2714    3.5443 C   0  0  0  0  0  0  0  0  0  0  0  0
   52.5578    4.8346    4.3496 C   0  0  0  0  0  0  0  0  0  0  0  0
   53.9953    4.8035    3.9950 C   0  0  0  0  0  0  0  0  0  0  0  0
   54.9652    5.7365    4.3143 C   0  0  0  0  0  0  0  0  0  0  0  0
   56.2641    5.3718    3.8604 C   0  0  0  0  0  0  0  0  0  0  0  0
   56.2872    4.1678    3.1778 C   0  0  0  0  0  0  0  0  0  0  0  0
   54.6993    3.5059    3.1076 S   0  0  0  0  0  0  0  0  0  0  0  0
   52.1424    5.4804    5.5258 C   0  0  0  0  0  0  0  0  0  0  0  0
   50.7853    5.5684    5.8797 C   0  0  0  0  0  0  0  0  0  0  0  0
   49.4734    3.8941    3.2378 H   0  0  0  0  0  0  0  0  0  0  0  0
   51.8146    3.7687    2.6138 H   0  0  0  0  0  0  0  0  0  0  0  0
   54.7598    6.6492    4.8602 H   0  0  0  0  0  0  0  0  0  0  0  0
   57.1460    5.9742    4.0405 H   0  0  0  0  0  0  0  0  0  0  0  0
   52.8739    5.9291    6.1947 H   0  0  0  0  0  0  0  0  0  0  0  0
   50.5275    6.0973    6.7946 H   0  0  0  0  0  0  0  0  0  0  0  0
   57.4576    3.4996    2.5609 C   0  0  0  0  0  0  0  0  0  0  0  0
   57.5695    2.1089    2.4284 C   0  0  0  0  0  0  0  0  0  0  0  0
   58.7298    1.5155    1.8864 C   0  0  0  0  0  0  0  0  0  0  0  0
   59.8218    2.2907    1.4640 C   0  0  0  0  0  0  0  0  0  0  0  0
   61.0432    1.6650    0.9034 C   0  0  0  0  0  0  0  0  0  0  0  0
   61.1806    0.4763    0.2094 C   0  0  0  0  0  0  0  0  0  0  0  0
   62.5278    0.2181   -0.1987 C   0  0  0  0  0  0  0  0  0  0  0  0
   63.4170    1.2027    0.1971 C   0  0  0  0  0  0  0  0  0  0  0  0
   62.5855    2.4112    1.0910 S   0  0  0  0  0  0  0  0  0  0  0  0
   59.6974    3.6810    1.5810 C   0  0  0  0  0  0  0  0  0  0  0  0
   58.5424    4.2712    2.1177 C   0  0  0  0  0  0  0  0  0  0  0  0
   56.7674    1.4550    2.7642 H   0  0  0  0  0  0  0  0  0  0  0  0
   58.7671    0.4299    1.8223 H   0  0  0  0  0  0  0  0  0  0  0  0
   60.3507   -0.1801   -0.0238 H   0  0  0  0  0  0  0  0  0  0  0  0
   62.8199   -0.6546   -0.7704 H   0  0  0  0  0  0  0  0  0  0  0  0
   60.4967    4.3405    1.2510 H   0  0  0  0  0  0  0  0  0  0  0  0
   58.5109    5.3568    2.1774 H   0  0  0  0  0  0  0  0  0  0  0  0
   64.8811    1.2799   -0.0191 C   0  0  0  0  0  0  0  0  0  0  0  0
   65.5675    2.4973   -0.1435 C   0  0  0  0  0  0  0  0  0  0  0  0
   66.9631    2.5386   -0.3336 C   0  0  0  0  0  0  0  0  0  0  0  0
   67.7227    1.3630   -0.4193 C   0  0  0  0  0  0  0  0  0  0  0  0
   69.1963    1.4177   -0.5856 C   0  0  0  0  0  0  0  0  0  0  0  0
   70.0886    2.3773   -0.1417 C   0  0  0  0  0  0  0  0  0  0  0  0
   71.4467    2.0773   -0.4783 C   0  0  0  0  0  0  0  0  0  0  0  0
   71.5856    0.8946   -1.1848 C   0  0  0  0  0  0  0  0  0  0  0  0
   70.0402    0.1872   -1.4446 S   0  0  0  0  0  0  0  0  0  0  0  0
   67.0352    0.1478   -0.3035 C   0  0  0  0  0  0  0  0  0  0  0  0
   65.6427    0.1068   -0.1119 C   0  0  0  0  0  0  0  0  0  0  0  0
   65.0292    3.4425   -0.1029 H   0  0  0  0  0  0  0  0  0  0  0  0
   67.4398    3.5125   -0.4248 H   0  0  0  0  0  0  0  0  0  0  0  0
   69.7948    3.2536    0.4226 H   0  0  0  0  0  0  0  0  0  0  0  0
   72.2830    2.7052   -0.1951 H   0  0  0  0  0  0  0  0  0  0  0  0
   67.5705   -0.7981   -0.3438 H   0  0  0  0  0  0  0  0  0  0  0  0
   65.1691   -0.8675   -0.0168 H   0  0  0  0  0  0  0  0  0  0  0  0
   72.8212    0.2644   -1.7079 C   0  0  0  0  0  0  0  0  0  0  0  0
   72.9614   -1.1242   -1.8502 C   0  0  0  0  0  0  0  0  0  0  0  0
   74.1538   -1.6973   -2.3347 C   0  0  0  0  0  0  0  0  0  0  0  0
   75.2553   -0.9040   -2.6889 C   0  0  0  0  0  0  0  0  0  0  0  0
   76.5017   -1.5178   -3.2048 C   0  0  0  0  0  0  0  0  0  0  0  0
   76.6686   -2.6950   -3.9130 C   0  0  0  0  0  0  0  0  0  0  0  0
   78.0313   -2.9516   -4.2624 C   0  0  0  0  0  0  0  0  0  0  0  0
   78.9015   -1.9770   -3.8075 C   0  0  0  0  0  0  0  0  0  0  0  0
   78.0326   -0.7790   -2.9341 S   0  0  0  0  0  0  0  0  0  0  0  0
   75.1113    0.4836   -2.5516 C   0  0  0  0  0  0  0  0  0  0  0  0
   73.9210    1.0557   -2.0682 C   0  0  0  0  0  0  0  0  0  0  0  0
   72.1494   -1.7935   -1.5742 H   0  0  0  0  0  0  0  0  0  0  0  0
   74.2049   -2.7812   -2.4145 H   0  0  0  0  0  0  0  0  0  0  0  0
   75.8491   -3.3446   -4.1961 H   0  0  0  0  0  0  0  0  0  0  0  0
   78.3476   -3.8129   -4.8383 H   0  0  0  0  0  0  0  0  0  0  0  0
   75.9207    1.1547   -2.8305 H   0  0  0  0  0  0  0  0  0  0  0  0
   73.8707    2.1396   -1.9934 H   0  0  0  0  0  0  0  0  0  0  0  0
   80.3719   -1.8940   -3.9655 C   0  0  0  0  0  0  0  0  0  0  0  0
   81.0501   -0.6696   -4.0402 C   0  0  0  0  0  0  0  0  0  0  0  0
   82.4469   -0.6133   -4.1984 C   0  0  0  0  0  0  0  0  0  0  0  0
   83.2202   -1.7798   -4.2985 C   0  0  0  0  0  0  0  0  0  0  0  0
   84.6899   -1.7445   -4.4591 C   0  0  0  0  0  0  0  0  0  0  0  0
   85.6341   -2.6625   -4.0342 C   0  0  0  0  0  0  0  0  0  0  0  0
   86.9690   -2.3020   -4.3956 C   0  0  0  0  0  0  0  0  0  0  0  0
   87.0377   -1.1129   -5.0991 C   0  0  0  0  0  0  0  0  0  0  0  0
   85.4608   -0.4557   -5.2940 S   0  0  0  0  0  0  0  0  0  0  0  0
   82.5404   -3.0062   -4.2273 C   0  0  0  0  0  0  0  0  0  0  0  0
   81.1450   -3.0611   -4.0646 C   0  0  0  0  0  0  0  0  0  0  0  0
   80.5074    0.2715   -3.9886 H   0  0  0  0  0  0  0  0  0  0  0  0
   82.9161    0.3677   -4.2341 H   0  0  0  0  0  0  0  0  0  0  0  0
   85.3885   -3.5605   -3.4802 H   0  0  0  0  0  0  0  0  0  0  0  0
   87.8364   -2.9046   -4.1542 H   0  0  0  0  0  0  0  0  0  0  0  0
   83.0871   -3.9426   -4.3072 H   0  0  0  0  0  0  0  0  0  0  0  0
   80.6739   -4.0403   -4.0128 H   0  0  0  0  0  0  0  0  0  0  0  0
   88.2283   -0.4165   -5.6350 C   0  0  0  0  0  0  0  0  0  0  0  0
   88.1681    0.3754   -6.7890 C   0  0  0  0  0  0  0  0  0  0  0  0
   89.3106    1.0098   -7.2987 C   0  0  0  0  0  0  0  0  0  0  0  0
   90.5640    0.8676   -6.6857 C   0  0  0  0  0  0  0  0  0  0  0  0
   91.7782    1.5046   -7.2393 C   0  0  0  0  0  0  0  0  0  0  0  0
   92.9073    1.9673   -6.5895 C   0  0  0  0  0  0  0  0  0  0  0  0
   93.8804    2.5191   -7.4824 C   0  0  0  0  0  0  0  0  0  0  0  0
   93.4858    2.4717   -8.8076 C   0  0  0  0  0  0  0  0  0  0  0  0
   91.9465    1.7235   -8.9349 S   0  0  0  0  0  0  0  0  0  0  0  0
   90.6256    0.0864   -5.5239 C   0  0  0  0  0  0  0  0  0  0  0  0
   89.4781   -0.5459   -5.0094 C   0  0  0  0  0  0  0  0  0  0  0  0
   87.2332    0.5057   -7.3293 H   0  0  0  0  0  0  0  0  0  0  0  0
   89.1947    1.6195   -8.1926 H   0  0  0  0  0  0  0  0  0  0  0  0
   93.0388    1.9272   -5.5137 H   0  0  0  0  0  0  0  0  0  0  0  0
   94.8233    2.9392   -7.1536 H   0  0  0  0  0  0  0  0  0  0  0  0
   91.5717   -0.0601   -5.0070 H   0  0  0  0  0  0  0  0  0  0  0  0
   89.5808   -1.1412   -4.1042 H   0  0  0  0  0  0  0  0  0  0  0  0
   94.2022    2.9228  -10.0195 C   0  0  0  0  0  0  0  0  0  0  0  0
   95.6014    2.8981  -10.0712 C   0  0  0  0  0  0  0  0  0  0  0  0
   96.2923    3.3067  -11.2238 C   0  0  0  0  0  0  0  0  0  0  0  0
   95.6115    3.7661  -12.3618 C   0  0  0  0  0  0  0  0  0  0  0  0
   96.3225    4.1926  -13.5847 C   0  0  0  0  0  0  0  0  0  0  0  0
   95.9093    4.1413  -14.9043 C   0  0  0  0  0  0  0  0  0  0  0  0
   96.8861    4.6509  -15.8164 C   0  0  0  0  0  0  0  0  0  0  0  0
   98.0309    5.1002  -15.1834 C   0  0  0  0  0  0  0  0  0  0  0  0
   97.8845    4.8920  -13.4849 S   0  0  0  0  0  0  0  0  0  0  0  0
   94.2130    3.7983  -12.3067 C   0  0  0  0  0  0  0  0  0  0  0  0
   93.5221    3.3877  -11.1559 C   0  0  0  0  0  0  0  0  0  0  0  0
   96.1828    2.5417   -9.2239 H   0  0  0  0  0  0  0  0  0  0  0  0
   97.3784    3.2432  -11.2152 H   0  0  0  0  0  0  0  0  0  0  0  0
   94.9520    3.7420  -15.2167 H   0  0  0  0  0  0  0  0  0  0  0  0
   96.7409    4.6884  -16.8893 H   0  0  0  0  0  0  0  0  0  0  0  0
   93.6322    4.1548  -13.1543 H   0  0  0  0  0  0  0  0  0  0  0  0
   92.4362    3.4455  -11.1672 H   0  0  0  0  0  0  0  0  0  0  0  0
   99.2631    5.6731  -15.7627 C   0  0  0  0  0  0  0  0  0  0  0  0
  100.0436    6.5966  -15.0561 C   0  0  0  0  0  0  0  0  0  0  0  0
  101.2168    7.1291  -15.6037 C   0  0  0  0  0  0  0  0  0  0  0  0
  101.6494    6.7737  -16.8879 C   0  0  0  0  0  0  0  0  0  0  0  0
  102.8729    7.3537  -17.4773 C   0  0  0  0  0  0  0  0  0  0  0  0
  103.7632    6.8093  -18.3845 C   0  0  0  0  0  0  0  0  0  0  0  0
  104.8257    7.7045  -18.7297 C   0  0  0  0  0  0  0  0  0  0  0  0
  104.7271    8.9285  -18.0938 C   0  0  0  0  0  0  0  0  0  0  0  0
  103.3516    8.9498  -17.0688 S   0  0  0  0  0  0  0  0  0  0  0  0
  100.8721    5.8491  -17.5993 C   0  0  0  0  0  0  0  0  0  0  0  0
   99.6962    5.3097  -17.0461 C   0  0  0  0  0  0  0  0  0  0  0  0
   99.7553    6.9303  -14.0617 H   0  0  0  0  0  0  0  0  0  0  0  0
  101.7845    7.8298  -14.9956 H   0  0  0  0  0  0  0  0  0  0  0  0
  103.6709    5.8072  -18.7854 H   0  0  0  0  0  0  0  0  0  0  0  0
  105.6157    7.4556  -19.4277 H   0  0  0  0  0  0  0  0  0  0  0  0
  101.1602    5.5419  -18.6022 H   0  0  0  0  0  0  0  0  0  0  0  0
   99.1307    4.5921  -17.6358 H   0  0  0  0  0  0  0  0  0  0  0  0
  105.6093   10.1096  -18.1767 C   0  0  0  0  0  0  0  0  0  0  0  0
  105.1096   11.4075  -18.0068 C   0  0  0  0  0  0  0  0  0  0  0  0
  105.9506   12.5241  -18.0655 C   0  0  0  0  0  0  0  0  0  0  0  0
  107.3230   12.3928  -18.3187 C   0  0  0  0  0  0  0  0  0  0  0  0
  108.2069   13.5730  -18.3860 C   0  0  0  0  0  0  0  0  0  0  0  0
  109.5490   13.6943  -18.0727 C   0  0  0  0  0  0  0  0  0  0  0  0
  110.0435   15.0258  -18.2501 C   0  0  0  0  0  0  0  0  0  0  0  0
  109.0801   15.9021  -18.7170 C   0  0  0  0  0  0  0  0  0  0  0  0
  107.5932   15.0773  -18.9375 S   0  0  0  0  0  0  0  0  0  0  0  0
  107.8258   11.0963  -18.4972 C   0  0  0  0  0  0  0  0  0  0  0  0
  106.9820    9.9727  -18.4280 C   0  0  0  0  0  0  0  0  0  0  0  0
  104.0513   11.5823  -17.8262 H   0  0  0  0  0  0  0  0  0  0  0  0
  105.5019   13.5013  -17.9010 H   0  0  0  0  0  0  0  0  0  0  0  0
  110.1549   12.8738  -17.7087 H   0  0  0  0  0  0  0  0  0  0  0  0
  111.0660   15.3162  -18.0412 H   0  0  0  0  0  0  0  0  0  0  0  0
  108.8822   10.9380  -18.7018 H   0  0  0  0  0  0  0  0  0  0  0  0
  107.4215    8.9867  -18.5617 H   0  0  0  0  0  0  0  0  0  0  0  0
  109.1739   17.3495  -18.9959 C   0  0  0  0  0  0  0  0  0  0  0  0
  108.3721   17.9689  -19.9666 C   0  0  0  0  0  0  0  0  0  0  0  0
  108.4480   19.3474  -20.2067 C   0  0  0  0  0  0  0  0  0  0  0  0
  109.3346   20.1590  -19.4890 C   0  0  0  0  0  0  0  0  0  0  0  0
  109.3800   21.6115  -19.7460 C   0  0  0  0  0  0  0  0  0  0  0  0
  108.3598   22.4507  -20.1676 C   0  0  0  0  0  0  0  0  0  0  0  0
  108.7747   23.8071  -20.3134 C   0  0  0  0  0  0  0  0  0  0  0  0
  110.1048   23.9705  -20.0069 C   0  0  0  0  0  0  0  0  0  0  0  0
  110.6818   24.8848  -20.0245 H   0  0  0  0  0  0  0  0  0  0  0  0
  110.8451   22.4972  -19.5660 S   0  0  0  0  0  0  0  0  0  0  0  0
  110.1421   19.5416  -18.5225 C   0  0  0  0  0  0  0  0  0  0  0  0
  110.0670   18.1597  -18.2830 C   0  0  0  0  0  0  0  0  0  0  0  0
  107.6698   17.3894  -20.5617 H   0  0  0  0  0  0  0  0  0  0  0  0
  107.8040   19.7703  -20.9743 H   0  0  0  0  0  0  0  0  0  0  0  0
  107.3471   22.1133  -20.3530 H   0  0  0  0  0  0  0  0  0  0  0  0
  108.1287   24.6194  -20.6231 H   0  0  0  0  0  0  0  0  0  0  0  0
  110.8352   20.1277  -17.9229 H   0  0  0  0  0  0  0  0  0  0  0  0
  110.7060   17.7362  -17.5115 H   0  0  0  0  0  0  0  0  0  0  0  0
  1  2  1  0  0  0  0
  2  3  2  0  0  0  0
  2 12  1  0  0  0  0
  3  4  1  0  0  0  0
  3 13  1  0  0  0  0
  4  5  2  0  0  0  0
  4 14  1  0  0  0  0
  5  6  1  0  0  0  0
  5 11  1  0  0  0  0
  6  7  2  0  0  0  0
  6 10  1  0  0  0  0
  7  8  1  0  0  0  0
  7 15  1  0  0  0  0
  8  9  2  0  0  0  0
  8 16  1  0  0  0  0
  9 10  1  0  0  0  0
  9 19  1  0  0  0  0
 11 12  2  0  0  0  0
 11 17  1  0  0  0  0
 12 18  1  0  0  0  0
 19 20  2  0  0  0  0
 19 29  1  0  0  0  0
 20 21  1  0  0  0  0
 20 30  1  0  0  0  0
 21 22  2  0  0  0  0
 21 31  1  0  0  0  0
 22 23  1  0  0  0  0
 22 28  1  0  0  0  0
 23 24  2  0  0  0  0
 23 27  1  0  0  0  0
 24 25  1  0  0  0  0
 24 32  1  0  0  0  0
 25 26  2  0  0  0  0
 25 33  1  0  0  0  0
 26 27  1  0  0  0  0
 26 36  1  0  0  0  0
 28 29  2  0  0  0  0
 28 34  1  0  0  0  0
 29 35  1  0  0  0  0
 36 37  2  0  0  0  0
 36 46  1  0  0  0  0
 37 38  1  0  0  0  0
 37 47  1  0  0  0  0
 38 39  2  0  0  0  0
 38 48  1  0  0  0  0
 39 40  1  0  0  0  0
 39 45  1  0  0  0  0
 40 41  2  0  0  0  0
 40 44  1  0  0  0  0
 41 42  1  0  0  0  0
 41 49  1  0  0  0  0
 42 43  2  0  0  0  0
 42 50  1  0  0  0  0
 43 44  1  0  0  0  0
 43 53  1  0  0  0  0
 45 46  2  0  0  0  0
 45 51  1  0  0  0  0
 46 52  1  0  0  0  0
 53 54  2  0  0  0  0
 53 63  1  0  0  0  0
 54 55  1  0  0  0  0
 54 64  1  0  0  0  0
 55 56  2  0  0  0  0
 55 65  1  0  0  0  0
 56 57  1  0  0  0  0
 56 62  1  0  0  0  0
 57 58  2  0  0  0  0
 57 61  1  0  0  0  0
 58 59  1  0  0  0  0
 58 66  1  0  0  0  0
 59 60  2  0  0  0  0
 59 67  1  0  0  0  0
 60 61  1  0  0  0  0
 60 70  1  0  0  0  0
 62 63  2  0  0  0  0
 62 68  1  0  0  0  0
 63 69  1  0  0  0  0
 70 71  2  0  0  0  0
 70 80  1  0  0  0  0
 71 72  1  0  0  0  0
 71 81  1  0  0  0  0
 72 73  2  0  0  0  0
 72 82  1  0  0  0  0
 73 74  1  0  0  0  0
 73 79  1  0  0  0  0
 74 75  2  0  0  0  0
 74 78  1  0  0  0  0
 75 76  1  0  0  0  0
 75 83  1  0  0  0  0
 76 77  2  0  0  0  0
 76 84  1  0  0  0  0
 77 78  1  0  0  0  0
 77 87  1  0  0  0  0
 79 80  2  0  0  0  0
 79 85  1  0  0  0  0
 80 86  1  0  0  0  0
 87 88  2  0  0  0  0
 87 97  1  0  0  0  0
 88 89  1  0  0  0  0
 88 98  1  0  0  0  0
 89 90  2  0  0  0  0
 89 99  1  0  0  0  0
 90 91  1  0  0  0  0
 90 96  1  0  0  0  0
 91 92  2  0  0  0  0
 91 95  1  0  0  0  0
 92 93  1  0  0  0  0
 92100  1  0  0  0  0
 93 94  2  0  0  0  0
 93101  1  0  0  0  0
 94 95  1  0  0  0  0
 94104  1  0  0  0  0
 96 97  2  0  0  0  0
 96102  1  0  0  0  0
 97103  1  0  0  0  0
104105  2  0  0  0  0
104114  1  0  0  0  0
105106  1  0  0  0  0
105115  1  0  0  0  0
106107  2  0  0  0  0
106116  1  0  0  0  0
107108  1  0  0  0  0
107113  1  0  0  0  0
108109  2  0  0  0  0
108112  1  0  0  0  0
109110  1  0  0  0  0
109117  1  0  0  0  0
110111  2  0  0  0  0
110118  1  0  0  0  0
111112  1  0  0  0  0
111121  1  0  0  0  0
113114  2  0  0  0  0
113119  1  0  0  0  0
114120  1  0  0  0  0
121122  2  0  0  0  0
121131  1  0  0  0  0
122123  1  0  0  0  0
122132  1  0  0  0  0
123124  2  0  0  0  0
123133  1  0  0  0  0
124125  1  0  0  0  0
124130  1  0  0  0  0
125126  2  0  0  0  0
125129  1  0  0  0  0
126127  1  0  0  0  0
126134  1  0  0  0  0
127128  2  0  0  0  0
127135  1  0  0  0  0
128129  1  0  0  0  0
128138  1  0  0  0  0
130131  2  0  0  0  0
130136  1  0  0  0  0
131137  1  0  0  0  0
138139  2  0  0  0  0
138148  1  0  0  0  0
139140  1  0  0  0  0
139149  1  0  0  0  0
140141  2  0  0  0  0
140150  1  0  0  0  0
141142  1  0  0  0  0
141147  1  0  0  0  0
142143  2  0  0  0  0
142146  1  0  0  0  0
143144  1  0  0  0  0
143151  1  0  0  0  0
144145  2  0  0  0  0
144152  1  0  0  0  0
145146  1  0  0  0  0
145155  1  0  0  0  0
147148  2  0  0  0  0
147153  1  0  0  0  0
148154  1  0  0  0  0
155156  2  0  0  0  0
155165  1  0  0  0  0
156157  1  0  0  0  0
156166  1  0  0  0  0
157158  2  0  0  0  0
157167  1  0  0  0  0
158159  1  0  0  0  0
158164  1  0  0  0  0
159160  2  0  0  0  0
159163  1  0  0  0  0
160161  1  0  0  0  0
160168  1  0  0  0  0
161162  2  0  0  0  0
161169  1  0  0  0  0
162163  1  0  0  0  0
162172  1  0  0  0  0
164165  2  0  0  0  0
164170  1  0  0  0  0
165171  1  0  0  0  0
172173  2  0  0  0  0
172182  1  0  0  0  0
173174  1  0  0  0  0
173183  1  0  0  0  0
174175  2  0  0  0  0
174184  1  0  0  0  0
175176  1  0  0  0  0
175181  1  0  0  0  0
176177  2  0  0  0  0
176180  1  0  0  0  0
177178  1  0  0  0  0
177185  1  0  0  0  0
178179  2  0  0  0  0
178186  1  0  0  0  0
179180  1  0  0  0  0
179189  1  0  0  0  0
181182  2  0  0  0  0
181187  1  0  0  0  0
182188  1  0  0  0  0
189190  2  0  0  0  0
189199  1  0  0  0  0
190191  1  0  0  0  0
190200  1  0  0  0  0
191192  2  0  0  0  0
191201  1  0  0  0  0
192193  1  0  0  0  0
192198  1  0  0  0  0
193194  2  0  0  0  0
193197  1  0  0  0  0
194195  1  0  0  0  0
194202  1  0  0  0  0
195196  2  0  0  0  0
195203  1  0  0  0  0
196197  1  0  0  0  0
196206  1  0  0  0  0
198199  2  0  0  0  0
198204  1  0  0  0  0
199205  1  0  0  0  0
206207  2  0  0  0  0
206216  1  0  0  0  0
207208  1  0  0  0  0
207217  1  0  0  0  0
208209  2  0  0  0  0
208218  1  0  0  0  0
209210  1  0  0  0  0
209215  1  0  0  0  0
210211  2  0  0  0  0
210214  1  0  0  0  0
211212  1  0  0  0  0
211219  1  0  0  0  0
212213  2  0  0  0  0
212220  1  0  0  0  0
213214  1  0  0  0  0
213223  1  0  0  0  0
215216  2  0  0  0  0
215221  1  0  0  0  0
216222  1  0  0  0  0
223224  2  0  0  0  0
223233  1  0  0  0  0
224225  1  0  0  0  0
224234  1  0  0  0  0
225226  2  0  0  0  0
225235  1  0  0  0  0
226227  1  0  0  0  0
226232  1  0  0  0  0
227228  2  0  0  0  0
227231  1  0  0  0  0
228229  1  0  0  0  0
228236  1  0  0  0  0
229230  2  0  0  0  0
229237  1  0  0  0  0
230231  1  0  0  0  0
230240  1  0  0  0  0
232233  2  0  0  0  0
232238  1  0  0  0  0
233239  1  0  0  0  0
240241  2  0  0  0  0
240251  1  0  0  0  0
241242  1  0  0  0  0
241252  1  0  0  0  0
242243  2  0  0  0  0
242253  1  0  0  0  0
243244  1  0  0  0  0
243250  1  0  0  0  0
244245  2  0  0  0  0
244249  1  0  0  0  0
245246  1  0  0  0  0
245254  1  0  0  0  0
246247  2  0  0  0  0
246255  1  0  0  0  0
247248  1  0  0  0  0
247249  1  0  0  0  0
250251  2  0  0  0  0
250256  1  0  0  0  0
251257  1  0  0  0  0
M  END
