polymer_1_2.xyz
 OpenBabel05292407083D

212241  0  0  0  0  0  0  0  0999 V2000
    8.2417    2.5049    4.5432 C   0  0  0  0  0  0  0  0  0  0  0  0
    7.4675    2.1171    5.6104 C   0  0  0  0  0  0  0  0  0  0  0  0
    7.0315    0.7627    5.4892 C   0  0  0  0  0  0  0  0  0  0  0  0
    7.4738    0.1497    4.3269 C   0  0  0  0  0  0  0  0  0  0  0  0
    7.2052   -1.1971    3.8540 C   0  0  0  0  0  0  0  0  0  0  0  0
    7.7118   -1.8143    2.7248 C   0  0  0  0  0  0  0  0  0  0  0  0
    7.2133   -3.1386    2.5372 C   0  0  0  0  0  0  0  0  0  0  0  0
    6.3550   -3.5410    3.5428 C   0  0  0  0  0  0  0  0  0  0  0  0
    6.1441   -2.2655    4.6797 S   0  0  0  0  0  0  0  0  0  0  0  0
    5.7033   -4.8298    3.7057 C   0  0  0  0  0  0  0  0  0  0  0  0
    4.7722   -5.1973    4.6591 C   0  0  0  0  0  0  0  0  0  0  0  0
    4.3904   -6.5703    4.5708 C   0  0  0  0  0  0  0  0  0  0  0  0
    4.9971   -7.2381    3.5229 C   0  0  0  0  0  0  0  0  0  0  0  0
    4.8193   -8.6244    3.1204 C   0  0  0  0  0  0  0  0  0  0  0  0
    5.4920   -9.3197    2.1327 C   0  0  0  0  0  0  0  0  0  0  0  0
    5.0143  -10.6552    1.9641 C   0  0  0  0  0  0  0  0  0  0  0  0
    3.9976  -10.9874    2.8416 C   0  0  0  0  0  0  0  0  0  0  0  0
    3.6565   -9.6509    3.8688 S   0  0  0  0  0  0  0  0  0  0  0  0
    3.2863  -12.2520    2.9490 C   0  0  0  0  0  0  0  0  0  0  0  0
    2.2230  -12.5748    3.7727 C   0  0  0  0  0  0  0  0  0  0  0  0
    1.8006  -13.9356    3.6376 C   0  0  0  0  0  0  0  0  0  0  0  0
    2.5260  -14.6398    2.6935 C   0  0  0  0  0  0  0  0  0  0  0  0
    2.3788  -16.0311    2.2931 C   0  0  0  0  0  0  0  0  0  0  0  0
    3.1494  -16.7466    1.3941 C   0  0  0  0  0  0  0  0  0  0  0  0
    2.7148  -18.0992    1.2294 C   0  0  0  0  0  0  0  0  0  0  0  0
    1.6270  -18.4206    2.0209 C   0  0  0  0  0  0  0  0  0  0  0  0
    1.1409  -17.0415    2.9310 S   0  0  0  0  0  0  0  0  0  0  0  0
    0.9383  -19.6997    2.1283 C   0  0  0  0  0  0  0  0  0  0  0  0
   -0.1950  -19.9960    2.8632 C   0  0  0  0  0  0  0  0  0  0  0  0
   -0.5972  -21.3672    2.7482 C   0  0  0  0  0  0  0  0  0  0  0  0
    0.2152  -22.1042    1.9086 C   0  0  0  0  0  0  0  0  0  0  0  0
    0.0858  -23.5074    1.5331 C   0  0  0  0  0  0  0  0  0  0  0  0
    0.9463  -24.2703    0.7642 C   0  0  0  0  0  0  0  0  0  0  0  0
    0.4895  -25.6114    0.5652 C   0  0  0  0  0  0  0  0  0  0  0  0
   -0.7031  -25.8831    1.2106 C   0  0  0  0  0  0  0  0  0  0  0  0
   -1.2584  -24.4675    2.0215 S   0  0  0  0  0  0  0  0  0  0  0  0
   -1.4354  -27.1420    1.2588 C   0  0  0  0  0  0  0  0  0  0  0  0
   -2.6742  -27.3861    1.8234 C   0  0  0  0  0  0  0  0  0  0  0  0
   -3.0769  -28.7545    1.7298 C   0  0  0  0  0  0  0  0  0  0  0  0
   -2.1615  -29.5508    1.0659 C   0  0  0  0  0  0  0  0  0  0  0  0
   -2.2611  -30.9727    0.7669 C   0  0  0  0  0  0  0  0  0  0  0  0
   -1.3154  -31.7949    0.1813 C   0  0  0  0  0  0  0  0  0  0  0  0
   -1.7767  -33.1355   -0.0123 C   0  0  0  0  0  0  0  0  0  0  0  0
   -3.0617  -33.3446    0.4553 C   0  0  0  0  0  0  0  0  0  0  0  0
   -3.6805  -31.8835    1.1222 S   0  0  0  0  0  0  0  0  0  0  0  0
   -3.8385  -34.5767    0.4303 C   0  0  0  0  0  0  0  0  0  0  0  0
   -5.1480  -34.7729    0.8313 C   0  0  0  0  0  0  0  0  0  0  0  0
   -5.5854  -36.1274    0.6852 C   0  0  0  0  0  0  0  0  0  0  0  0
   -4.6151  -36.9604    0.1574 C   0  0  0  0  0  0  0  0  0  0  0  0
   -4.7089  -38.3855   -0.1295 C   0  0  0  0  0  0  0  0  0  0  0  0
   -3.7200  -39.2322   -0.5974 C   0  0  0  0  0  0  0  0  0  0  0  0
   -4.1643  -40.5825   -0.7656 C   0  0  0  0  0  0  0  0  0  0  0  0
   -5.4867  -40.7693   -0.4056 C   0  0  0  0  0  0  0  0  0  0  0  0
   -6.1697  -39.2678    0.0917 S   0  0  0  0  0  0  0  0  0  0  0  0
   -6.2610  -42.0039   -0.4112 C   0  0  0  0  0  0  0  0  0  0  0  0
   -7.6067  -42.1624   -0.1287 C   0  0  0  0  0  0  0  0  0  0  0  0
   -8.0474  -43.5192   -0.2210 C   0  0  0  0  0  0  0  0  0  0  0  0
   -7.0447  -44.3945   -0.5970 C   0  0  0  0  0  0  0  0  0  0  0  0
   -7.1466  -45.8296   -0.8303 C   0  0  0  0  0  0  0  0  0  0  0  0
   -6.1306  -46.7254   -1.1098 C   0  0  0  0  0  0  0  0  0  0  0  0
   -6.5983  -48.0602   -1.3264 C   0  0  0  0  0  0  0  0  0  0  0  0
   -7.9678  -48.1906   -1.1827 C   0  0  0  0  0  0  0  0  0  0  0  0
   -8.6578  -46.6581   -0.8045 S   0  0  0  0  0  0  0  0  0  0  0  0
   -8.7753  -49.3978   -1.3074 C   0  0  0  0  0  0  0  0  0  0  0  0
  -10.1521  -49.5166   -1.2478 C   0  0  0  0  0  0  0  0  0  0  0  0
  -10.6091  -50.8659   -1.3801 C   0  0  0  0  0  0  0  0  0  0  0  0
   -9.5833  -51.7741   -1.5696 C   0  0  0  0  0  0  0  0  0  0  0  0
   -9.6822  -53.2141   -1.7690 C   0  0  0  0  0  0  0  0  0  0  0  0
   -8.6568  -54.1361   -1.8757 C   0  0  0  0  0  0  0  0  0  0  0  0
   -9.1193  -55.4696   -2.1086 C   0  0  0  0  0  0  0  0  0  0  0  0
  -10.4981  -55.5689   -2.1561 C   0  0  0  0  0  0  0  0  0  0  0  0
  -11.2000  -54.0147   -1.9203 S   0  0  0  0  0  0  0  0  0  0  0  0
  -11.3068  -56.7618   -2.3679 C   0  0  0  0  0  0  0  0  0  0  0  0
  -12.6819  -56.8559   -2.4840 C   0  0  0  0  0  0  0  0  0  0  0  0
  -13.1409  -58.1966   -2.6838 C   0  0  0  0  0  0  0  0  0  0  0  0
  -12.1143  -59.1224   -2.7345 C   0  0  0  0  0  0  0  0  0  0  0  0
  -12.2049  -60.5619   -2.9389 C   0  0  0  0  0  0  0  0  0  0  0  0
  -11.1829  -61.4936   -2.9173 C   0  0  0  0  0  0  0  0  0  0  0  0
  -11.6305  -62.8309   -3.1580 C   0  0  0  0  0  0  0  0  0  0  0  0
  -12.9985  -62.9216   -3.3407 C   0  0  0  0  0  0  0  0  0  0  0  0
  -13.6999  -61.3501   -3.2631 S   0  0  0  0  0  0  0  0  0  0  0  0
  -13.8032  -64.1179   -3.5652 C   0  0  0  0  0  0  0  0  0  0  0  0
  -15.1569  -64.1896   -3.8355 C   0  0  0  0  0  0  0  0  0  0  0  0
  -15.6292  -65.5282   -4.0024 C   0  0  0  0  0  0  0  0  0  0  0  0
  -14.6321  -66.4779   -3.8821 C   0  0  0  0  0  0  0  0  0  0  0  0
  -14.7438  -67.9231   -4.0351 C   0  0  0  0  0  0  0  0  0  0  0  0
  -13.7728  -68.8835   -3.8177 C   0  0  0  0  0  0  0  0  0  0  0  0
  -14.2170  -70.2121   -4.1080 C   0  0  0  0  0  0  0  0  0  0  0  0
  -15.5366  -70.2708   -4.5188 C   0  0  0  0  0  0  0  0  0  0  0  0
  -16.2003  -68.6817   -4.5607 S   0  0  0  0  0  0  0  0  0  0  0  0
  -16.3165  -71.4507   -4.8712 C   0  0  0  0  0  0  0  0  0  0  0  0
  -17.6091  -71.5107   -5.3602 C   0  0  0  0  0  0  0  0  0  0  0  0
  -18.0725  -72.8485   -5.5711 C   0  0  0  0  0  0  0  0  0  0  0  0
  -17.1230  -73.8086   -5.2725 C   0  0  0  0  0  0  0  0  0  0  0  0
  -17.2331  -75.2565   -5.3949 C   0  0  0  0  0  0  0  0  0  0  0  0
  -16.3094  -76.2151   -5.0197 C   0  0  0  0  0  0  0  0  0  0  0  0
  -16.7312  -77.5492   -5.3105 C   0  0  0  0  0  0  0  0  0  0  0  0
  -17.9877  -77.6127   -5.8855 C   0  0  0  0  0  0  0  0  0  0  0  0
  -18.6174  -76.0216   -6.0798 S   0  0  0  0  0  0  0  0  0  0  0  0
  -18.7281  -78.8016   -6.2863 C   0  0  0  0  0  0  0  0  0  0  0  0
  -19.9508  -78.8798   -6.9283 C   0  0  0  0  0  0  0  0  0  0  0  0
  -20.3858  -80.2257   -7.1513 C   0  0  0  0  0  0  0  0  0  0  0  0
  -19.4878  -81.1725   -6.6924 C   0  0  0  0  0  0  0  0  0  0  0  0
  -19.5931  -82.6240   -6.7519 C   0  0  0  0  0  0  0  0  0  0  0  0
  -18.7247  -83.5640   -6.2265 C   0  0  0  0  0  0  0  0  0  0  0  0
  -19.1457  -84.9117   -6.4534 C   0  0  0  0  0  0  0  0  0  0  0  0
  -20.3428  -84.9995   -7.1404 C   0  0  0  0  0  0  0  0  0  0  0  0
  -20.9014  -83.4190   -7.5384 S   0  0  0  0  0  0  0  0  0  0  0  0
  -21.0857  -86.1977   -7.5070 C   0  0  0  0  0  0  0  0  0  0  0  0
  -22.2336  -86.2880   -8.2718 C   0  0  0  0  0  0  0  0  0  0  0  0
  -22.7091  -87.6283   -8.4214 C   0  0  0  0  0  0  0  0  0  0  0  0
  -21.9105  -88.5636   -7.7897 C   0  0  0  0  0  0  0  0  0  0  0  0
  -22.0699  -90.0110   -7.7650 C   0  0  0  0  0  0  0  0  0  0  0  0
  -21.3278  -90.9402   -7.0588 C   0  0  0  0  0  0  0  0  0  0  0  0
  -21.7418  -92.2881   -7.2935 C   0  0  0  0  0  0  0  0  0  0  0  0
  -22.8159  -92.3867   -8.1596 C   0  0  0  0  0  0  0  0  0  0  0  0
  -23.2815  -90.8158   -8.6878 S   0  0  0  0  0  0  0  0  0  0  0  0
  -23.5058  -93.5906   -8.5999 C   0  0  0  0  0  0  0  0  0  0  0  0
  -24.5261  -93.7048   -9.5270 C   0  0  0  0  0  0  0  0  0  0  0  0
  -24.9861  -95.0484   -9.6963 C   0  0  0  0  0  0  0  0  0  0  0  0
  -24.2961  -95.9617   -8.9204 C   0  0  0  0  0  0  0  0  0  0  0  0
  -24.4736  -97.4038   -8.8562 C   0  0  0  0  0  0  0  0  0  0  0  0
  -23.8384  -98.3043   -8.0211 C   0  0  0  0  0  0  0  0  0  0  0  0
  -24.2507  -99.6549   -8.2320 C   0  0  0  0  0  0  0  0  0  0  0  0
  -25.2102  -99.7815   -9.2191 C   0  0  0  0  0  0  0  0  0  0  0  0
  -25.5671  -98.2390   -9.8900 S   0  0  0  0  0  0  0  0  0  0  0  0
  -25.8654 -100.9962   -9.6737 C   0  0  0  0  0  0  0  0  0  0  0  0
  -26.7661 -101.1463  -10.7120 C   0  0  0  0  0  0  0  0  0  0  0  0
  -27.2166 -102.4949  -10.8673 C   0  0  0  0  0  0  0  0  0  0  0  0
  -26.6413 -103.3658   -9.9680 C   0  0  0  0  0  0  0  0  0  0  0  0
  -26.8388 -104.8025   -9.8601 C   0  0  0  0  0  0  0  0  0  0  0  0
  -26.3196 -105.6744   -8.9155 C   0  0  0  0  0  0  0  0  0  0  0  0
  -26.7180 -107.0268   -9.1220 C   0  0  0  0  0  0  0  0  0  0  0  0
  -27.5332 -107.1606  -10.2209 C   0  0  0  0  0  0  0  0  0  0  0  0
  -27.8160 -105.6633  -10.9880 S   0  0  0  0  0  0  0  0  0  0  0  0
  -25.5824 -102.5132   -8.9167 S   0  0  0  0  0  0  0  0  0  0  0  0
  -23.1173  -95.1447   -7.9698 S   0  0  0  0  0  0  0  0  0  0  0  0
  -20.6094  -87.7691   -6.9872 S   0  0  0  0  0  0  0  0  0  0  0  0
  -18.1316  -80.3878   -5.9805 S   0  0  0  0  0  0  0  0  0  0  0  0
  -15.6862  -73.0454   -4.7063 S   0  0  0  0  0  0  0  0  0  0  0  0
  -13.1356  -65.7025   -3.5187 S   0  0  0  0  0  0  0  0  0  0  0  0
  -10.6040  -58.3268   -2.5112 S   0  0  0  0  0  0  0  0  0  0  0  0
   -8.0706  -50.9506   -1.5555 S   0  0  0  0  0  0  0  0  0  0  0  0
   -5.5638  -43.5324   -0.7856 S   0  0  0  0  0  0  0  0  0  0  0  0
   -3.1787  -36.0604   -0.1423 S   0  0  0  0  0  0  0  0  0  0  0  0
   -0.8081  -28.5989    0.5853 S   0  0  0  0  0  0  0  0  0  0  0  0
    1.4838  -21.1081    1.3018 S   0  0  0  0  0  0  0  0  0  0  0  0
    3.7121  -13.6142    1.9875 S   0  0  0  0  0  0  0  0  0  0  0  0
    6.0427   -6.1652    2.6753 S   0  0  0  0  0  0  0  0  0  0  0  0
    8.4486    1.2424    3.4156 S   0  0  0  0  0  0  0  0  0  0  0  0
    8.6987    3.4694    4.3696 H   0  0  0  0  0  0  0  0  0  0  0  0
    7.2202    2.7728    6.4369 H   0  0  0  0  0  0  0  0  0  0  0  0
    6.4092    0.2738    6.2292 H   0  0  0  0  0  0  0  0  0  0  0  0
    8.4111   -1.3440    2.0447 H   0  0  0  0  0  0  0  0  0  0  0  0
    7.4967   -3.7612    1.6973 H   0  0  0  0  0  0  0  0  0  0  0  0
    4.3833   -4.5225    5.4125 H   0  0  0  0  0  0  0  0  0  0  0  0
    3.6914   -7.0329    5.2566 H   0  0  0  0  0  0  0  0  0  0  0  0
    6.2863   -8.8968    1.5300 H   0  0  0  0  0  0  0  0  0  0  0  0
    5.4103  -11.3332    1.2174 H   0  0  0  0  0  0  0  0  0  0  0  0
    1.7607  -11.8787    4.4624 H   0  0  0  0  0  0  0  0  0  0  0  0
    0.9952  -14.3642    4.2219 H   0  0  0  0  0  0  0  0  0  0  0  0
    3.9977  -16.3315    0.8626 H   0  0  0  0  0  0  0  0  0  0  0  0
    3.1982  -18.7964    0.5573 H   0  0  0  0  0  0  0  0  0  0  0  0
   -0.7296  -19.2742    3.4640 H   0  0  0  0  0  0  0  0  0  0  0  0
   -1.4589  -21.7704    3.2627 H   0  0  0  0  0  0  0  0  0  0  0  0
    1.8716  -23.8943    0.3448 H   0  0  0  0  0  0  0  0  0  0  0  0
    1.0341  -26.3388   -0.0245 H   0  0  0  0  0  0  0  0  0  0  0  0
   -3.2789  -26.6250    2.3015 H   0  0  0  0  0  0  0  0  0  0  0  0
   -4.0117  -29.1227    2.1360 H   0  0  0  0  0  0  0  0  0  0  0  0
   -0.3299  -31.4613   -0.1202 H   0  0  0  0  0  0  0  0  0  0  0  0
   -1.1745  -33.9046   -0.4805 H   0  0  0  0  0  0  0  0  0  0  0  0
   -5.7828  -33.9873    1.2236 H   0  0  0  0  0  0  0  0  0  0  0  0
   -6.5786  -36.4593    0.9632 H   0  0  0  0  0  0  0  0  0  0  0  0
   -2.7075  -38.9129   -0.8139 H   0  0  0  0  0  0  0  0  0  0  0  0
   -3.5199  -41.3744   -1.1282 H   0  0  0  0  0  0  0  0  0  0  0  0
   -8.2671  -41.3454    0.1361 H   0  0  0  0  0  0  0  0  0  0  0  0
   -9.0695  -43.8211   -0.0279 H   0  0  0  0  0  0  0  0  0  0  0  0
   -5.0849  -46.4494   -1.1718 H   0  0  0  0  0  0  0  0  0  0  0  0
   -5.9384  -48.8830   -1.5733 H   0  0  0  0  0  0  0  0  0  0  0  0
  -10.8239  -48.6784   -1.1076 H   0  0  0  0  0  0  0  0  0  0  0  0
  -11.6563  -51.1405   -1.3422 H   0  0  0  0  0  0  0  0  0  0  0  0
   -7.6064  -53.8808   -1.8037 H   0  0  0  0  0  0  0  0  0  0  0  0
   -8.4501  -56.3121   -2.2355 H   0  0  0  0  0  0  0  0  0  0  0  0
  -13.3507  -56.0052   -2.4306 H   0  0  0  0  0  0  0  0  0  0  0  0
  -14.1886  -58.4515   -2.7890 H   0  0  0  0  0  0  0  0  0  0  0  0
  -10.1447  -61.2435   -2.7332 H   0  0  0  0  0  0  0  0  0  0  0  0
  -10.9609  -63.6823   -3.1798 H   0  0  0  0  0  0  0  0  0  0  0  0
  -15.8047  -63.3229   -3.9161 H   0  0  0  0  0  0  0  0  0  0  0  0
  -16.6642  -65.7660   -4.2164 H   0  0  0  0  0  0  0  0  0  0  0  0
  -12.7705  -68.6589   -3.4735 H   0  0  0  0  0  0  0  0  0  0  0  0
  -13.5783  -71.0815   -4.0090 H   0  0  0  0  0  0  0  0  0  0  0  0
  -18.2184  -70.6375   -5.5599 H   0  0  0  0  0  0  0  0  0  0  0  0
  -19.0662  -73.0785   -5.9364 H   0  0  0  0  0  0  0  0  0  0  0  0
  -15.3567  -75.9865   -4.5575 H   0  0  0  0  0  0  0  0  0  0  0  0
  -16.1235  -78.4195   -5.0938 H   0  0  0  0  0  0  0  0  0  0  0  0
  -20.5290  -78.0149   -7.2311 H   0  0  0  0  0  0  0  0  0  0  0  0
  -21.3254  -80.4705   -7.6321 H   0  0  0  0  0  0  0  0  0  0  0  0
  -17.8201  -83.3123   -5.6865 H   0  0  0  0  0  0  0  0  0  0  0  0
  -18.5854  -85.7710   -6.1051 H   0  0  0  0  0  0  0  0  0  0  0  0
  -22.7298  -85.4334   -8.7162 H   0  0  0  0  0  0  0  0  0  0  0  0
  -23.5998  -87.8784   -8.9847 H   0  0  0  0  0  0  0  0  0  0  0  0
  -20.5095  -90.6816   -6.3977 H   0  0  0  0  0  0  0  0  0  0  0  0
  -21.2613  -93.1418   -6.8305 H   0  0  0  0  0  0  0  0  0  0  0  0
  -24.9435  -92.8656  -10.0703 H   0  0  0  0  0  0  0  0  0  0  0  0
  -25.7894  -95.3172  -10.3720 H   0  0  0  0  0  0  0  0  0  0  0  0
  -23.1018  -98.0232   -7.2778 H   0  0  0  0  0  0  0  0  0  0  0  0
  -23.8504 -100.4895   -7.6693 H   0  0  0  0  0  0  0  0  0  0  0  0
  -27.1033 -100.3341  -11.3436 H   0  0  0  0  0  0  0  0  0  0  0  0
  -27.9314 -102.7922  -11.6255 H   0  0  0  0  0  0  0  0  0  0  0  0
  -25.6731 -105.3650   -8.1033 H   0  0  0  0  0  0  0  0  0  0  0  0
  -26.4188 -107.8599   -8.4958 H   0  0  0  0  0  0  0  0  0  0  0  0
  -27.9770 -108.0663  -10.6119 H   0  0  0  0  0  0  0  0  0  0  0  0
  1  2  2  0  0  0  0
  1150  1  0  0  0  0
  1151  1  0  0  0  0
  2  3  1  0  0  0  0
  2152  1  0  0  0  0
  3  4  2  0  0  0  0
  3153  1  0  0  0  0
  4  5  1  0  0  0  0
  4150  1  0  0  0  0
  5  6  2  0  0  0  0
  5  9  1  0  0  0  0
  6  7  1  0  0  0  0
  6154  1  0  0  0  0
  7  8  2  0  0  0  0
  7155  1  0  0  0  0
  8  9  1  0  0  0  0
  8 10  1  0  0  0  0
 10 11  2  0  0  0  0
 10149  1  0  0  0  0
 11 12  1  0  0  0  0
 11156  1  0  0  0  0
 12 13  2  0  0  0  0
 12157  1  0  0  0  0
 13 14  1  0  0  0  0
 13149  1  0  0  0  0
 14 15  2  0  0  0  0
 14 18  1  0  0  0  0
 15 16  1  0  0  0  0
 15158  1  0  0  0  0
 16 17  2  0  0  0  0
 16159  1  0  0  0  0
 17 18  1  0  0  0  0
 17 19  1  0  0  0  0
 19 20  2  0  0  0  0
 19148  1  0  0  0  0
 20 21  1  0  0  0  0
 20160  1  0  0  0  0
 21 22  2  0  0  0  0
 21161  1  0  0  0  0
 22 23  1  0  0  0  0
 22148  1  0  0  0  0
 23 24  2  0  0  0  0
 23 27  1  0  0  0  0
 24 25  1  0  0  0  0
 24162  1  0  0  0  0
 25 26  2  0  0  0  0
 25163  1  0  0  0  0
 26 27  1  0  0  0  0
 26 28  1  0  0  0  0
 28 29  2  0  0  0  0
 28147  1  0  0  0  0
 29 30  1  0  0  0  0
 29164  1  0  0  0  0
 30 31  2  0  0  0  0
 30165  1  0  0  0  0
 31 32  1  0  0  0  0
 31147  1  0  0  0  0
 32 33  2  0  0  0  0
 32 36  1  0  0  0  0
 33 34  1  0  0  0  0
 33166  1  0  0  0  0
 34 35  2  0  0  0  0
 34167  1  0  0  0  0
 35 36  1  0  0  0  0
 35 37  1  0  0  0  0
 37 38  2  0  0  0  0
 37146  1  0  0  0  0
 38 39  1  0  0  0  0
 38168  1  0  0  0  0
 39 40  2  0  0  0  0
 39169  1  0  0  0  0
 40 41  1  0  0  0  0
 40146  1  0  0  0  0
 41 42  2  0  0  0  0
 41 45  1  0  0  0  0
 42 43  1  0  0  0  0
 42170  1  0  0  0  0
 43 44  2  0  0  0  0
 43171  1  0  0  0  0
 44 45  1  0  0  0  0
 44 46  1  0  0  0  0
 46 47  2  0  0  0  0
 46145  1  0  0  0  0
 47 48  1  0  0  0  0
 47172  1  0  0  0  0
 48 49  2  0  0  0  0
 48173  1  0  0  0  0
 49 50  1  0  0  0  0
 49145  1  0  0  0  0
 50 51  2  0  0  0  0
 50 54  1  0  0  0  0
 51 52  1  0  0  0  0
 51174  1  0  0  0  0
 52 53  2  0  0  0  0
 52175  1  0  0  0  0
 53 54  1  0  0  0  0
 53 55  1  0  0  0  0
 55 56  2  0  0  0  0
 55144  1  0  0  0  0
 56 57  1  0  0  0  0
 56176  1  0  0  0  0
 57 58  2  0  0  0  0
 57177  1  0  0  0  0
 58 59  1  0  0  0  0
 58144  1  0  0  0  0
 59 60  2  0  0  0  0
 59 63  1  0  0  0  0
 60 61  1  0  0  0  0
 60178  1  0  0  0  0
 61 62  2  0  0  0  0
 61179  1  0  0  0  0
 62 63  1  0  0  0  0
 62 64  1  0  0  0  0
 64 65  2  0  0  0  0
 64143  1  0  0  0  0
 65 66  1  0  0  0  0
 65180  1  0  0  0  0
 66 67  2  0  0  0  0
 66181  1  0  0  0  0
 67 68  1  0  0  0  0
 67143  1  0  0  0  0
 68 69  2  0  0  0  0
 68 72  1  0  0  0  0
 69 70  1  0  0  0  0
 69182  1  0  0  0  0
 70 71  2  0  0  0  0
 70183  1  0  0  0  0
 71 72  1  0  0  0  0
 71 73  1  0  0  0  0
 73 74  2  0  0  0  0
 73142  1  0  0  0  0
 74 75  1  0  0  0  0
 74184  1  0  0  0  0
 75 76  2  0  0  0  0
 75185  1  0  0  0  0
 76 77  1  0  0  0  0
 76142  1  0  0  0  0
 77 78  2  0  0  0  0
 77 81  1  0  0  0  0
 78 79  1  0  0  0  0
 78186  1  0  0  0  0
 79 80  2  0  0  0  0
 79187  1  0  0  0  0
 80 81  1  0  0  0  0
 80 82  1  0  0  0  0
 82 83  2  0  0  0  0
 82141  1  0  0  0  0
 83 84  1  0  0  0  0
 83188  1  0  0  0  0
 84 85  2  0  0  0  0
 84189  1  0  0  0  0
 85 86  1  0  0  0  0
 85141  1  0  0  0  0
 86 87  2  0  0  0  0
 86 90  1  0  0  0  0
 87 88  1  0  0  0  0
 87190  1  0  0  0  0
 88 89  2  0  0  0  0
 88191  1  0  0  0  0
 89 90  1  0  0  0  0
 89 91  1  0  0  0  0
 91 92  2  0  0  0  0
 91140  1  0  0  0  0
 92 93  1  0  0  0  0
 92192  1  0  0  0  0
 93 94  2  0  0  0  0
 93193  1  0  0  0  0
 94 95  1  0  0  0  0
 94140  1  0  0  0  0
 95 96  2  0  0  0  0
 95 99  1  0  0  0  0
 96 97  1  0  0  0  0
 96194  1  0  0  0  0
 97 98  2  0  0  0  0
 97195  1  0  0  0  0
 98 99  1  0  0  0  0
 98100  1  0  0  0  0
100101  2  0  0  0  0
100139  1  0  0  0  0
101102  1  0  0  0  0
101196  1  0  0  0  0
102103  2  0  0  0  0
102197  1  0  0  0  0
103104  1  0  0  0  0
103139  1  0  0  0  0
104105  2  0  0  0  0
104108  1  0  0  0  0
105106  1  0  0  0  0
105198  1  0  0  0  0
106107  2  0  0  0  0
106199  1  0  0  0  0
107108  1  0  0  0  0
107109  1  0  0  0  0
109110  2  0  0  0  0
109138  1  0  0  0  0
110111  1  0  0  0  0
110200  1  0  0  0  0
111112  2  0  0  0  0
111201  1  0  0  0  0
112113  1  0  0  0  0
112138  1  0  0  0  0
113114  2  0  0  0  0
113117  1  0  0  0  0
114115  1  0  0  0  0
114202  1  0  0  0  0
115116  2  0  0  0  0
115203  1  0  0  0  0
116117  1  0  0  0  0
116118  1  0  0  0  0
118119  2  0  0  0  0
118137  1  0  0  0  0
119120  1  0  0  0  0
119204  1  0  0  0  0
120121  2  0  0  0  0
120205  1  0  0  0  0
121122  1  0  0  0  0
121137  1  0  0  0  0
122123  2  0  0  0  0
122126  1  0  0  0  0
123124  1  0  0  0  0
123206  1  0  0  0  0
124125  2  0  0  0  0
124207  1  0  0  0  0
125126  1  0  0  0  0
125127  1  0  0  0  0
127128  2  0  0  0  0
127136  1  0  0  0  0
128129  1  0  0  0  0
128208  1  0  0  0  0
129130  2  0  0  0  0
129209  1  0  0  0  0
130131  1  0  0  0  0
130136  1  0  0  0  0
131132  2  0  0  0  0
131135  1  0  0  0  0
132133  1  0  0  0  0
132210  1  0  0  0  0
133134  2  0  0  0  0
133211  1  0  0  0  0
134135  1  0  0  0  0
134212  1  0  0  0  0
M  END
