22

H     -4.774800    0.557783    1.360812
C     -3.820557    0.204186    0.856716
C     -3.725038   -0.492690   -0.185608
C     -2.368505   -0.738294   -0.513898
C     -1.487543   -0.131651    0.419731
C      0.047065   -0.158999    0.431747
C      0.871641   -0.735682    1.434082
C      2.278890   -0.806366    1.558578
C      3.089303   -0.190962    0.459566
H      4.162971   -0.239133    0.553435
C      2.378952    0.360597   -0.518230
C      2.946232    1.016674   -1.672218
S      1.682814    1.596773   -2.672689
C      0.414571    1.030167   -1.657660
C      0.915684    0.388740   -0.570519
S     -2.467507    0.689668    1.636698
H     -4.558418   -0.954769   -0.901729
H     -1.950079   -1.319866   -1.361198
H      0.295071   -1.213110    2.268341
H      2.744565   -1.263095    2.375319
H      3.945309    1.157592   -1.923181
H     -0.620620    1.242436   -1.982212
