42

H     -3.309389    1.669189    3.284170
C     -2.533700    1.160267    2.778808
C     -2.714985    0.034040    2.216312
C     -1.426645   -0.310626    1.651080
C     -0.424071    0.709953    1.905414
C      0.998490    0.684458    1.472821
C      2.101395    0.612891    2.375905
C      3.493297    0.617199    1.998122
C      3.937272    0.678126    0.657931
C      2.879100    0.740928   -0.265801
C      3.043118    0.807932   -1.632949
S      1.535407    0.890147   -2.449028
C      0.649726    0.827301   -0.978372
C      1.465985    0.734992    0.125191
S     -1.210454    2.004743    2.851206
H     -3.564178   -0.719553    2.059417
H     -1.124693   -1.217326    1.075199
H      1.883484    0.552768    3.442405
H      4.239074    0.572011    2.794810
H      3.957974    0.814738   -2.210253
H     -0.429045    0.866579   -1.012415
C      5.336314    0.695393    0.277342
C      6.132316    1.774108   -0.043650
C      7.466299    1.380948   -0.369667
C      7.655632    0.010462   -0.286053
C      8.877247   -0.795454   -0.525783
C      9.596729   -1.597979    0.381684
C     10.771499   -2.400273    0.270294
C     11.344893   -2.388266   -1.049404
H     12.129218   -2.903561   -1.202059
C     10.800794   -1.671142   -2.104177
C     11.211275   -1.562517   -3.379224
S     10.104125   -0.525288   -4.230572
C      9.090069   -0.238336   -2.875120
C      9.585696   -0.903028   -1.785777
S      6.205801   -0.774042    0.198698
H      5.777187    2.797989   -0.046355
H      8.251922    2.073263   -0.648268
H      9.116137   -1.581412    1.434002
H     11.146683   -2.916526    1.055411
H     12.001053   -1.969781   -3.862246
H      8.196939    0.415414   -3.056878
