142

H     13.346898   11.377279   -6.481813
C     13.745226   11.017113   -5.771538
C     14.566044   11.271524   -4.798239
C     14.844067   10.151457   -3.885960
C     14.192797    9.044023   -4.212393
C     14.216385    7.670958   -3.517216
C     14.729919    6.501726   -4.109793
C     14.770941    5.213841   -3.467641
C     14.308430    4.977750   -2.151764
C     13.805858    6.141780   -1.540038
C     13.313923    6.195520   -0.252692
S     12.772212    7.771757    0.157620
C     13.207028    8.402213   -1.378997
C     13.769282    7.450480   -2.201971
S     13.218818    9.304760   -5.658148
H     15.062519   12.253447   -4.611238
H     15.537322   10.205574   -2.995314
H     15.124202    6.555029   -5.127632
H     15.176971    4.374592   -4.037594
H     13.235202    5.405902    0.482457
H     13.023448    9.445498   -1.589681
C     14.326779    3.672043   -1.514016
C     13.265100    2.887726   -1.109070
C     13.691073    1.664168   -0.514796
C     15.066429    1.547243   -0.482165
C     15.879733    0.463003    0.041266
C     16.719117   -0.344462   -0.762945
C     17.502796   -1.428476   -0.257368
C     17.526984   -1.815457    1.103920
C     16.699368   -1.012663    1.911787
C     16.566616   -1.149406    3.275098
S     15.488510    0.013006    3.933196
C     15.207722    0.729118    2.398622
C     15.903174    0.088509    1.398165
S     15.825336    2.912994   -1.182693
H     12.228221    3.176338   -1.236214
H     13.018733    0.904861   -0.132919
H     16.772047   -0.141320   -1.833573
H     18.107534   -1.988644   -0.972064
H     17.042942   -1.857656    3.938819
H     14.551596    1.585926    2.331905
C     18.305583   -2.934109    1.607547
C     17.865837   -4.110217    2.181754
C     18.942287   -4.966476    2.555621
C     20.175028   -4.421187    2.256769
C     21.499037   -4.975139    2.483333
C     22.392315   -5.319541    1.440831
C     23.686302   -5.888568    1.656883
C     24.218937   -6.171188    2.937453
C     23.338873   -5.825034    3.980400
C     23.622292   -5.960647    5.320636
S     22.325509   -5.420528    6.307146
C     21.379336   -4.974531    4.946118
C     22.024314   -5.246989    3.760911
S     20.014705   -2.886005    1.515620
H     16.818409   -4.348714    2.324831
H     18.816532   -5.938108    3.018829
H     22.081772   -5.152619    0.408363
H     24.286797   -6.122305    0.776507
H     24.518770   -6.337593    5.793156
H     20.406917   -4.529882    5.106538
C     25.524060   -6.773548    3.149822
C     25.835705   -7.997264    3.708151
C     27.240919   -8.232778    3.748030
C     27.964497   -7.182586    3.219028
C     29.404248   -7.040318    3.084490
C     30.069759   -6.960006    1.837887
C     31.488381   -6.845768    1.698818
C     32.386130   -6.800178    2.792164
C     31.731166   -6.872641    4.036290
C     32.363093   -6.812494    5.257767
S     31.249528   -6.911845    6.560330
C     29.904199   -7.010634    5.498785
C     30.290001   -6.988714    4.177565
S     26.934520   -5.930405    2.668582
H     25.089517   -8.695244    4.069365
H     27.697897   -9.132389    4.143400
H     29.475475   -6.994614    0.923603
H     31.892878   -6.799978    0.686604
H     33.416839   -6.706916    5.475740
H     28.909143   -7.070181    5.917544
C     33.828805   -6.710398    2.644093
C     34.798091   -7.623614    3.008594
C     36.113742   -7.169325    2.701414
C     36.113708   -5.921448    2.110556
C     37.240983   -5.123861    1.658510
C     37.465536   -4.783499    0.303107
C     38.586719   -4.020776   -0.150847
C     39.597649   -3.520648    0.704323
C     39.377864   -3.849232    2.055539
C     40.187101   -3.456837    3.097708
S     39.603467   -4.022603    4.609612
C     38.243736   -4.778871    3.884531
C     38.238865   -4.624077    2.516701
S     34.521409   -5.320536    1.922661
H     34.574558   -8.577359    3.472109
H     37.016677   -7.734083    2.901923
H     36.751777   -5.125111   -0.447978
H     38.662349   -3.825391   -1.221548
H     41.088981   -2.860950    3.073551
H     37.526354   -5.284527    4.515966
C     40.748420   -2.768464    0.234011
C     42.086306   -3.105978    0.283660
C     42.921042   -2.097402   -0.279961
C     42.198100   -1.016858   -0.744831
C     42.677807    0.201090   -1.375505
C     42.378584    0.560998   -2.711300
C     42.868546    1.745358   -3.345382
C     43.707705    2.690542   -2.708284
C     44.004705    2.343001   -1.376709
C     44.768431    3.104469   -0.521211
S     44.904635    2.382309    1.030091
C     43.918722    1.051829    0.578006
C     43.506905    1.139858   -0.732557
S     40.517567   -1.241619   -0.505763
H     42.451383   -4.036471    0.702385
H     44.000810   -2.164324   -0.343832
H     41.744648   -0.101169   -3.302827
H     42.579633    1.917203   -4.383314
H     45.254876    4.052915   -0.702760
H     43.697104    0.290040    1.312552
C     44.223482    3.879650   -3.365758
C     45.530422    4.211444   -3.660411
C     45.633842    5.478002   -4.311724
C     44.401920    6.078345   -4.501978
C     44.090558    7.405501   -5.124996
C     43.328814    7.550520   -6.318703
C     43.027057    8.847709   -6.968781
C     43.481866   10.049698   -6.438939
H     43.240765   10.969094   -6.934772
C     44.207701    9.969365   -5.297163
C     44.761134   10.947869   -4.566621
S     45.594962   10.410504   -3.168253
C     45.236932    8.763014   -3.482953
C     44.496585    8.626510   -4.663031
S     43.138060    5.095355   -3.892484
H     46.375382    3.574917   -3.423487
H     46.569744    5.920596   -4.632506
H     42.955623    6.637074   -6.779572
H     42.441199    8.762319   -7.861718
H     44.735886   12.043263   -4.760989
H     45.594718    8.011865   -2.773642
